Version 4
SHEET 1 880 680
WIRE -1104 -1328 -1728 -1328
WIRE -1616 -1280 -1648 -1280
WIRE -1536 -1280 -1552 -1280
WIRE -1520 -1280 -1536 -1280
WIRE -1424 -1280 -1440 -1280
WIRE -1648 -1232 -1648 -1280
WIRE -1536 -1232 -1536 -1280
WIRE -1424 -1232 -1424 -1280
WIRE -1104 -1232 -1104 -1328
WIRE -896 -1232 -1104 -1232
WIRE -720 -1232 -896 -1232
WIRE -1728 -1168 -1728 -1328
WIRE -1728 -1168 -1888 -1168
WIRE -1712 -1168 -1728 -1168
WIRE -1312 -1168 -1360 -1168
WIRE -1232 -1168 -1312 -1168
WIRE -1888 -1152 -1888 -1168
WIRE -1232 -1152 -1232 -1168
WIRE -1312 -1088 -1312 -1104
WIRE -1728 -1072 -1728 -1168
WIRE -1712 -1072 -1728 -1072
WIRE -1232 -1072 -1232 -1088
WIRE -1232 -1072 -1360 -1072
WIRE -576 -1072 -608 -1072
WIRE -448 -1072 -496 -1072
WIRE -1888 -1056 -1888 -1072
WIRE -1232 -1056 -1232 -1072
WIRE -1104 -1056 -1104 -1232
WIRE -896 -1056 -896 -1232
WIRE -720 -1056 -720 -1232
WIRE -1728 -976 -1728 -1072
WIRE -1712 -976 -1728 -976
WIRE -1200 -976 -1360 -976
WIRE -1152 -976 -1200 -976
WIRE -832 -976 -848 -976
WIRE -656 -976 -672 -976
WIRE -608 -976 -608 -1072
WIRE -576 -976 -608 -976
WIRE -448 -976 -448 -1072
WIRE -448 -976 -496 -976
WIRE -1200 -944 -1200 -976
WIRE -832 -944 -832 -976
WIRE -832 -944 -1200 -944
WIRE -656 -944 -656 -976
WIRE -656 -944 -832 -944
WIRE -1728 -880 -1728 -976
WIRE -1712 -880 -1728 -880
WIRE -1232 -880 -1232 -992
WIRE -1232 -880 -1360 -880
WIRE -1104 -880 -1104 -960
WIRE -1104 -880 -1232 -880
WIRE -896 -880 -896 -960
WIRE -896 -880 -1104 -880
WIRE -720 -880 -720 -960
WIRE -720 -880 -896 -880
WIRE -608 -880 -608 -976
WIRE -608 -880 -720 -880
WIRE -576 -880 -608 -880
WIRE -448 -880 -448 -976
WIRE -448 -880 -496 -880
WIRE -432 -880 -448 -880
WIRE -336 -880 -352 -880
WIRE -288 -880 -336 -880
WIRE -240 -880 -288 -880
WIRE -128 -880 -240 -880
WIRE 16 -880 -128 -880
WIRE -1104 -864 -1104 -880
WIRE -896 -864 -896 -880
WIRE -720 -864 -720 -880
WIRE -240 -864 -240 -880
WIRE -128 -864 -128 -880
WIRE 16 -864 16 -880
WIRE -1712 -784 -1744 -784
WIRE -1248 -784 -1360 -784
WIRE -1152 -784 -1248 -784
WIRE -800 -784 -848 -784
WIRE -624 -784 -672 -784
WIRE -240 -768 -240 -800
WIRE -128 -768 -128 -800
WIRE 16 -768 16 -784
WIRE -1248 -736 -1248 -784
WIRE -800 -736 -800 -784
WIRE -800 -736 -1248 -736
WIRE -624 -736 -624 -784
WIRE -624 -736 -800 -736
WIRE -1104 -688 -1104 -768
WIRE -1104 -688 -1360 -688
WIRE -896 -688 -896 -768
WIRE -896 -688 -1104 -688
WIRE -720 -688 -720 -768
WIRE -720 -688 -896 -688
WIRE -1104 -672 -1104 -688
WIRE -448 -592 -448 -880
WIRE -448 -592 -1360 -592
WIRE -288 -544 -288 -880
WIRE -1712 -496 -1744 -496
WIRE -336 -496 -336 -880
WIRE -336 -496 -1360 -496
WIRE -1808 -400 -1824 -400
WIRE -1712 -400 -1728 -400
WIRE -288 -400 -288 -464
WIRE -288 -400 -1360 -400
WIRE -288 -384 -288 -400
WIRE -2016 -304 -2032 -304
WIRE -1888 -304 -1952 -304
WIRE -1712 -304 -1888 -304
WIRE -1344 -304 -1360 -304
WIRE -1888 -288 -1888 -304
WIRE -288 -288 -288 -304
WIRE -1888 -208 -1888 -224
WIRE -1808 -208 -1824 -208
WIRE -1712 -208 -1744 -208
WIRE -1344 -208 -1360 -208
WIRE -1648 -128 -1648 -144
WIRE -1536 -128 -1536 -144
WIRE -1424 -128 -1424 -144
WIRE -1648 -48 -1648 -64
WIRE -1536 -48 -1536 -64
WIRE -1424 -48 -1424 -64
FLAG -1344 -208 0
FLAG -1648 -48 0
FLAG -1536 -48 0
FLAG -1824 -208 0
FLAG -2032 -304 0
FLAG -1824 -400 0
FLAG -1744 -496 0
FLAG -1744 -784 0
FLAG -1888 -1056 0
FLAG -1312 -1088 0
FLAG -1104 -672 0
FLAG -1344 -304 0
FLAG -288 -288 0
FLAG -240 -768 0
FLAG 16 -768 0
FLAG 16 -880 OUT
FLAG -1888 -1168 IN
FLAG -1888 -208 0
FLAG -1424 -48 0
FLAG -128 -768 0
SYMBOL PowerProducts\\LT3840 -1536 -688 R0
SYMATTR InstName U1
SYMBOL cap -1552 -128 R0
WINDOW 39 21 64 Left 2
WINDOW 3 36 36 Left 2
SYMATTR SpiceLine Rser=7.68K
SYMATTR Value 470p
SYMATTR InstName C1
SYMBOL cap -1664 -128 R0
SYMATTR InstName C2
SYMATTR Value 2200p
SYMBOL cap -1744 -224 R90
WINDOW 0 0 32 VBottom 2
WINDOW 3 32 32 VTop 2
SYMATTR InstName C3
SYMATTR Value 0.1n
SYMBOL cap -1952 -320 R90
WINDOW 0 0 32 VBottom 2
WINDOW 3 32 32 VTop 2
WINDOW 39 54 30 VTop 2
SYMATTR InstName C4
SYMATTR Value 2200p
SYMATTR SpiceLine Rser=20K
SYMBOL res -1712 -416 R90
WINDOW 0 0 56 VBottom 2
WINDOW 3 32 56 VTop 2
SYMATTR InstName R1
SYMATTR Value 158K
SYMBOL voltage -1888 -1168 R0
SYMATTR InstName V1
SYMATTR Value 24
SYMBOL cap -1552 -1296 R90
WINDOW 0 0 32 VBottom 2
WINDOW 3 32 32 VTop 2
SYMATTR InstName C5
SYMATTR Value 1µ
SYMBOL ind -1536 -1264 R270
WINDOW 0 32 56 VTop 2
WINDOW 3 5 56 VBottom 2
SYMATTR InstName L1
SYMATTR Value 33µ
SYMATTR SpiceLine Rser=.1
SYMBOL cap -1328 -1168 R0
WINDOW 0 29 15 Left 2
SYMATTR InstName C6
SYMATTR Value 4.7µ
SYMBOL schottky -1248 -1152 R0
SYMATTR InstName D1
SYMATTR Value BAT46WJ
SYMATTR Description Diode
SYMATTR Type diode
SYMBOL nmos -1152 -1056 R0
SYMATTR InstName M1
SYMATTR Value BSC265N10LSF
SYMBOL cap -1248 -1056 R0
SYMATTR InstName C7
SYMATTR Value 1µ
SYMBOL nmos -1152 -864 R0
SYMATTR InstName M2
SYMATTR Value BSC252N10NSF
SYMBOL ind -592 -864 R270
WINDOW 0 32 56 VTop 2
WINDOW 3 5 56 VBottom 2
SYMATTR InstName L2
SYMATTR Value {POW_IND}
SYMATTR SpiceLine Rser=10m
SYMBOL res -448 -864 R270
WINDOW 0 32 56 VTop 2
WINDOW 3 0 56 VBottom 2
SYMATTR InstName R2
SYMATTR Value 2m
SYMBOL res -304 -560 R0
SYMATTR InstName R3
SYMATTR Value 16.4K
SYMBOL res -304 -400 R0
SYMATTR InstName R4
SYMATTR Value 10K
SYMBOL cap -256 -864 R0
WINDOW 123 28 59 Left 2
WINDOW 3 39 35 Left 2
SYMATTR Value2 x4
SYMATTR Value 22µ
SYMATTR InstName C8
SYMATTR SpiceLine Rser=20m
SYMBOL res 0 -880 R0
SYMATTR InstName Rload
SYMATTR Value 0.165
SYMBOL cap -1904 -288 R0
SYMATTR InstName C9
SYMATTR Value 0.1n
SYMBOL cap -1440 -128 R0
SYMATTR InstName C10
SYMATTR Value 0.1n
SYMBOL cap -144 -864 R0
SYMATTR InstName C11
SYMATTR Value 560µ
SYMBOL nmos -672 -1056 M0
SYMATTR InstName M3
SYMATTR Value BSC265N10LSF
SYMBOL nmos -672 -864 M0
SYMATTR InstName M4
SYMATTR Value BSC252N10NSF
SYMBOL ind -592 -960 R270
WINDOW 0 32 56 VTop 2
WINDOW 3 5 56 VBottom 2
SYMATTR InstName L3
SYMATTR Value {POW_IND}
SYMATTR SpiceLine Rser=10m
SYMBOL ind -592 -1056 R270
WINDOW 0 32 56 VTop 2
WINDOW 3 5 56 VBottom 2
SYMATTR InstName L4
SYMATTR Value {POW_IND}
SYMATTR SpiceLine Rser=10m
SYMBOL nmos -848 -1056 M0
SYMATTR InstName M5
SYMATTR Value BSC265N10LSF
SYMBOL nmos -848 -864 M0
SYMATTR InstName M6
SYMATTR Value BSC252N10NSF
TEXT -1120 -184 Left 2 !.tran 1m steady startup nodiscard
TEXT -584 -1176 Left 2 !.param POW_IND 4.7u
