Version 4
SHEET 1 880 680
WIRE -1024 -1296 -1648 -1296
WIRE -1536 -1248 -1568 -1248
WIRE -1456 -1248 -1472 -1248
WIRE -1440 -1248 -1456 -1248
WIRE -1344 -1248 -1360 -1248
WIRE -1568 -1200 -1568 -1248
WIRE -1456 -1200 -1456 -1248
WIRE -1344 -1200 -1344 -1248
WIRE -1024 -1200 -1024 -1296
WIRE -816 -1200 -1024 -1200
WIRE -640 -1200 -816 -1200
WIRE -1648 -1136 -1648 -1296
WIRE -1648 -1136 -1808 -1136
WIRE -1632 -1136 -1648 -1136
WIRE -1232 -1136 -1280 -1136
WIRE -1152 -1136 -1232 -1136
WIRE -1808 -1120 -1808 -1136
WIRE -1152 -1120 -1152 -1136
WIRE -1232 -1056 -1232 -1072
WIRE -1648 -1040 -1648 -1136
WIRE -1632 -1040 -1648 -1040
WIRE -1152 -1040 -1152 -1056
WIRE -1152 -1040 -1280 -1040
WIRE -496 -1040 -528 -1040
WIRE -368 -1040 -416 -1040
WIRE -1808 -1024 -1808 -1040
WIRE -1152 -1024 -1152 -1040
WIRE -1024 -1024 -1024 -1200
WIRE -816 -1024 -816 -1200
WIRE -640 -1024 -640 -1200
WIRE -1648 -944 -1648 -1040
WIRE -1632 -944 -1648 -944
WIRE -1120 -944 -1280 -944
WIRE -1072 -944 -1120 -944
WIRE -752 -944 -768 -944
WIRE -576 -944 -592 -944
WIRE -528 -944 -528 -1040
WIRE -496 -944 -528 -944
WIRE -368 -944 -368 -1040
WIRE -368 -944 -416 -944
WIRE -1120 -912 -1120 -944
WIRE -752 -912 -752 -944
WIRE -752 -912 -1120 -912
WIRE -576 -912 -576 -944
WIRE -576 -912 -752 -912
WIRE -1648 -848 -1648 -944
WIRE -1632 -848 -1648 -848
WIRE -1152 -848 -1152 -960
WIRE -1152 -848 -1280 -848
WIRE -1024 -848 -1024 -928
WIRE -1024 -848 -1152 -848
WIRE -816 -848 -816 -928
WIRE -816 -848 -1024 -848
WIRE -640 -848 -640 -928
WIRE -640 -848 -816 -848
WIRE -528 -848 -528 -944
WIRE -528 -848 -640 -848
WIRE -496 -848 -528 -848
WIRE -368 -848 -368 -944
WIRE -368 -848 -416 -848
WIRE -352 -848 -368 -848
WIRE -256 -848 -272 -848
WIRE -208 -848 -256 -848
WIRE -160 -848 -208 -848
WIRE -48 -848 -160 -848
WIRE 96 -848 -48 -848
WIRE -1024 -832 -1024 -848
WIRE -816 -832 -816 -848
WIRE -640 -832 -640 -848
WIRE -160 -832 -160 -848
WIRE -48 -832 -48 -848
WIRE 96 -832 96 -848
WIRE -1632 -752 -1664 -752
WIRE -1168 -752 -1280 -752
WIRE -1072 -752 -1168 -752
WIRE -720 -752 -768 -752
WIRE -544 -752 -592 -752
WIRE -160 -736 -160 -768
WIRE -48 -736 -48 -768
WIRE 96 -736 96 -752
WIRE -1168 -704 -1168 -752
WIRE -720 -704 -720 -752
WIRE -720 -704 -1168 -704
WIRE -544 -704 -544 -752
WIRE -544 -704 -720 -704
WIRE -1024 -656 -1024 -736
WIRE -1024 -656 -1280 -656
WIRE -816 -656 -816 -736
WIRE -816 -656 -1024 -656
WIRE -640 -656 -640 -736
WIRE -640 -656 -816 -656
WIRE -1024 -640 -1024 -656
WIRE -368 -560 -368 -848
WIRE -368 -560 -1280 -560
WIRE -208 -512 -208 -848
WIRE -1632 -464 -1664 -464
WIRE -256 -464 -256 -848
WIRE -256 -464 -1280 -464
WIRE -1728 -368 -1744 -368
WIRE -1632 -368 -1648 -368
WIRE -208 -368 -208 -432
WIRE -208 -368 -1280 -368
WIRE -208 -352 -208 -368
WIRE -1936 -272 -1952 -272
WIRE -1808 -272 -1872 -272
WIRE -1632 -272 -1808 -272
WIRE -1264 -272 -1280 -272
WIRE -1808 -256 -1808 -272
WIRE -208 -256 -208 -272
WIRE -1808 -176 -1808 -192
WIRE -1728 -176 -1744 -176
WIRE -1632 -176 -1664 -176
WIRE -1264 -176 -1280 -176
WIRE -1568 -96 -1568 -112
WIRE -1456 -96 -1456 -112
WIRE -1344 -96 -1344 -112
WIRE -1568 -16 -1568 -32
WIRE -1456 -16 -1456 -32
WIRE -1344 -16 -1344 -32
FLAG -1264 -176 0
FLAG -1568 -16 0
FLAG -1456 -16 0
FLAG -1744 -176 0
FLAG -1952 -272 0
FLAG -1744 -368 0
FLAG -1664 -464 0
FLAG -1664 -752 0
FLAG -1808 -1024 0
FLAG -1232 -1056 0
FLAG -1024 -640 0
FLAG -1264 -272 0
FLAG -208 -256 0
FLAG -160 -736 0
FLAG 96 -736 0
FLAG 96 -848 OUT
FLAG -1808 -1136 IN
FLAG -1808 -176 0
FLAG -1344 -16 0
FLAG -48 -736 0
SYMBOL PowerProducts\\LT3840 -1456 -656 R0
SYMATTR InstName U1
SYMBOL cap -1472 -96 R0
WINDOW 39 21 64 Left 2
WINDOW 3 36 36 Left 2
SYMATTR SpiceLine Rser=7.68K
SYMATTR Value 470p
SYMATTR InstName C1
SYMBOL cap -1584 -96 R0
SYMATTR InstName C2
SYMATTR Value 2200p
SYMBOL cap -1664 -192 R90
WINDOW 0 0 32 VBottom 2
WINDOW 3 32 32 VTop 2
SYMATTR InstName C3
SYMATTR Value 0.1n
SYMBOL cap -1872 -288 R90
WINDOW 0 0 32 VBottom 2
WINDOW 3 32 32 VTop 2
WINDOW 39 54 30 VTop 2
SYMATTR InstName C4
SYMATTR Value 2200p
SYMATTR SpiceLine Rser=20K
SYMBOL res -1632 -384 R90
WINDOW 0 0 56 VBottom 2
WINDOW 3 32 56 VTop 2
SYMATTR InstName R1
SYMATTR Value 158K
SYMBOL voltage -1808 -1136 R0
SYMATTR InstName V1
SYMATTR Value 24
SYMBOL cap -1472 -1264 R90
WINDOW 0 0 32 VBottom 2
WINDOW 3 32 32 VTop 2
SYMATTR InstName C5
SYMATTR Value 1µ
SYMBOL ind -1456 -1232 R270
WINDOW 0 32 56 VTop 2
WINDOW 3 5 56 VBottom 2
SYMATTR InstName L1
SYMATTR Value 33µ
SYMATTR SpiceLine Rser=.1
SYMBOL cap -1248 -1136 R0
WINDOW 0 29 15 Left 2
SYMATTR InstName C6
SYMATTR Value 4.7µ
SYMBOL schottky -1168 -1120 R0
SYMATTR InstName D1
SYMATTR Value BAT46WJ
SYMATTR Description Diode
SYMATTR Type diode
SYMBOL nmos -1072 -1024 R0
SYMATTR InstName M1
SYMATTR Value BSC265N10LSF
SYMBOL cap -1168 -1024 R0
SYMATTR InstName C7
SYMATTR Value 1µ
SYMBOL nmos -1072 -832 R0
SYMATTR InstName M2
SYMATTR Value BSC252N10NSF
SYMBOL ind -512 -832 R270
WINDOW 0 32 56 VTop 2
WINDOW 3 5 56 VBottom 2
SYMATTR InstName L2
SYMATTR Value {POW_IND}
SYMATTR SpiceLine Rser=10m
SYMBOL res -368 -832 R270
WINDOW 0 32 56 VTop 2
WINDOW 3 0 56 VBottom 2
SYMATTR InstName R2
SYMATTR Value 2m
SYMBOL res -224 -528 R0
SYMATTR InstName R3
SYMATTR Value 4.4K
SYMBOL res -224 -368 R0
SYMATTR InstName R4
SYMATTR Value 10K
SYMBOL cap -176 -832 R0
WINDOW 123 28 59 Left 2
WINDOW 3 39 35 Left 2
SYMATTR Value2 x4
SYMATTR Value 22µ
SYMATTR InstName C8
SYMATTR SpiceLine Rser=20m
SYMBOL res 80 -848 R0
SYMATTR InstName Rload
SYMATTR Value 0.09
SYMBOL cap -1824 -256 R0
SYMATTR InstName C9
SYMATTR Value 0.1n
SYMBOL cap -1360 -96 R0
SYMATTR InstName C10
SYMATTR Value 0.1n
SYMBOL cap -64 -832 R0
SYMATTR InstName C11
SYMATTR Value 560µ
SYMBOL nmos -592 -1024 M0
SYMATTR InstName M3
SYMATTR Value BSC265N10LSF
SYMBOL nmos -592 -832 M0
SYMATTR InstName M4
SYMATTR Value BSC252N10NSF
SYMBOL ind -512 -928 R270
WINDOW 0 32 56 VTop 2
WINDOW 3 5 56 VBottom 2
SYMATTR InstName L3
SYMATTR Value {POW_IND}
SYMATTR SpiceLine Rser=10m
SYMBOL ind -512 -1024 R270
WINDOW 0 32 56 VTop 2
WINDOW 3 5 56 VBottom 2
SYMATTR InstName L4
SYMATTR Value {POW_IND}
SYMATTR SpiceLine Rser=10m
SYMBOL nmos -768 -1024 M0
SYMATTR InstName M5
SYMATTR Value BSC265N10LSF
SYMBOL nmos -768 -832 M0
SYMATTR InstName M6
SYMATTR Value BSC252N10NSF
TEXT -1040 -152 Left 2 !.tran 1m steady startup nodiscard
TEXT -504 -1144 Left 2 !.param POW_IND 2.775u
