Version 4
SHEET 1 880 680
WIRE -2256 -2880 -2880 -2880
WIRE -2768 -2832 -2800 -2832
WIRE -2688 -2832 -2704 -2832
WIRE -2672 -2832 -2688 -2832
WIRE -2576 -2832 -2592 -2832
WIRE -2800 -2784 -2800 -2832
WIRE -2688 -2784 -2688 -2832
WIRE -2576 -2784 -2576 -2832
WIRE -2256 -2784 -2256 -2880
WIRE -2048 -2784 -2256 -2784
WIRE -1872 -2784 -2048 -2784
WIRE -2880 -2720 -2880 -2880
WIRE -2880 -2720 -3040 -2720
WIRE -2864 -2720 -2880 -2720
WIRE -2464 -2720 -2512 -2720
WIRE -2384 -2720 -2464 -2720
WIRE -3040 -2704 -3040 -2720
WIRE -2384 -2704 -2384 -2720
WIRE -2464 -2640 -2464 -2656
WIRE -2880 -2624 -2880 -2720
WIRE -2864 -2624 -2880 -2624
WIRE -2384 -2624 -2384 -2640
WIRE -2384 -2624 -2512 -2624
WIRE -1728 -2624 -1760 -2624
WIRE -1600 -2624 -1648 -2624
WIRE -3040 -2608 -3040 -2624
WIRE -2384 -2608 -2384 -2624
WIRE -2256 -2608 -2256 -2784
WIRE -2048 -2608 -2048 -2784
WIRE -1872 -2608 -1872 -2784
WIRE -2880 -2528 -2880 -2624
WIRE -2864 -2528 -2880 -2528
WIRE -2352 -2528 -2512 -2528
WIRE -2304 -2528 -2352 -2528
WIRE -1984 -2528 -2000 -2528
WIRE -1808 -2528 -1824 -2528
WIRE -1760 -2528 -1760 -2624
WIRE -1728 -2528 -1760 -2528
WIRE -1600 -2528 -1600 -2624
WIRE -1600 -2528 -1648 -2528
WIRE -2352 -2496 -2352 -2528
WIRE -1984 -2496 -1984 -2528
WIRE -1984 -2496 -2352 -2496
WIRE -1808 -2496 -1808 -2528
WIRE -1808 -2496 -1984 -2496
WIRE -2880 -2432 -2880 -2528
WIRE -2864 -2432 -2880 -2432
WIRE -2384 -2432 -2384 -2544
WIRE -2384 -2432 -2512 -2432
WIRE -2256 -2432 -2256 -2512
WIRE -2256 -2432 -2384 -2432
WIRE -2048 -2432 -2048 -2512
WIRE -2048 -2432 -2256 -2432
WIRE -1872 -2432 -1872 -2512
WIRE -1872 -2432 -2048 -2432
WIRE -1760 -2432 -1760 -2528
WIRE -1760 -2432 -1872 -2432
WIRE -1728 -2432 -1760 -2432
WIRE -1600 -2432 -1600 -2528
WIRE -1600 -2432 -1648 -2432
WIRE -1584 -2432 -1600 -2432
WIRE -1488 -2432 -1504 -2432
WIRE -1440 -2432 -1488 -2432
WIRE -1392 -2432 -1440 -2432
WIRE -1280 -2432 -1392 -2432
WIRE -1136 -2432 -1280 -2432
WIRE -2256 -2416 -2256 -2432
WIRE -2048 -2416 -2048 -2432
WIRE -1872 -2416 -1872 -2432
WIRE -1392 -2416 -1392 -2432
WIRE -1280 -2416 -1280 -2432
WIRE -1136 -2416 -1136 -2432
WIRE -2864 -2336 -2896 -2336
WIRE -2400 -2336 -2512 -2336
WIRE -2304 -2336 -2400 -2336
WIRE -1952 -2336 -2000 -2336
WIRE -1776 -2336 -1824 -2336
WIRE -1392 -2320 -1392 -2352
WIRE -1280 -2320 -1280 -2352
WIRE -1136 -2320 -1136 -2336
WIRE -2400 -2288 -2400 -2336
WIRE -1952 -2288 -1952 -2336
WIRE -1952 -2288 -2400 -2288
WIRE -1776 -2288 -1776 -2336
WIRE -1776 -2288 -1952 -2288
WIRE -2256 -2240 -2256 -2320
WIRE -2256 -2240 -2512 -2240
WIRE -2048 -2240 -2048 -2320
WIRE -2048 -2240 -2256 -2240
WIRE -1872 -2240 -1872 -2320
WIRE -1872 -2240 -2048 -2240
WIRE -2256 -2224 -2256 -2240
WIRE -1600 -2144 -1600 -2432
WIRE -1600 -2144 -2512 -2144
WIRE -1440 -2096 -1440 -2432
WIRE -2864 -2048 -2896 -2048
WIRE -1488 -2048 -1488 -2432
WIRE -1488 -2048 -2512 -2048
WIRE -2960 -1952 -2976 -1952
WIRE -2864 -1952 -2880 -1952
WIRE -1440 -1952 -1440 -2016
WIRE -1440 -1952 -2512 -1952
WIRE -1440 -1936 -1440 -1952
WIRE -3168 -1856 -3184 -1856
WIRE -3040 -1856 -3104 -1856
WIRE -2864 -1856 -3040 -1856
WIRE -2496 -1856 -2512 -1856
WIRE -3040 -1840 -3040 -1856
WIRE -1440 -1840 -1440 -1856
WIRE -3040 -1760 -3040 -1776
WIRE -2960 -1760 -2976 -1760
WIRE -2864 -1760 -2896 -1760
WIRE -2496 -1760 -2512 -1760
WIRE -2800 -1680 -2800 -1696
WIRE -2688 -1680 -2688 -1696
WIRE -2576 -1680 -2576 -1696
WIRE -2800 -1600 -2800 -1616
WIRE -2688 -1600 -2688 -1616
WIRE -2576 -1600 -2576 -1616
FLAG -2496 -1760 0
FLAG -2800 -1600 0
FLAG -2688 -1600 0
FLAG -2976 -1760 0
FLAG -3184 -1856 0
FLAG -2976 -1952 0
FLAG -2896 -2048 0
FLAG -2896 -2336 0
FLAG -3040 -2608 0
FLAG -2464 -2640 0
FLAG -2256 -2224 0
FLAG -2496 -1856 0
FLAG -1440 -1840 0
FLAG -1392 -2320 0
FLAG -1136 -2320 0
FLAG -1136 -2432 OUT
FLAG -3040 -2720 IN
FLAG -3040 -1760 0
FLAG -2576 -1600 0
FLAG -1280 -2320 0
SYMBOL PowerProducts\\LT3840 -2688 -2240 R0
SYMATTR InstName U1
SYMBOL cap -2704 -1680 R0
WINDOW 39 21 64 Left 2
WINDOW 3 36 36 Left 2
SYMATTR SpiceLine Rser=7.68K
SYMATTR Value 470p
SYMATTR InstName C1
SYMBOL cap -2816 -1680 R0
SYMATTR InstName C2
SYMATTR Value 2200p
SYMBOL cap -2896 -1776 R90
WINDOW 0 0 32 VBottom 2
WINDOW 3 32 32 VTop 2
SYMATTR InstName C3
SYMATTR Value 0.1n
SYMBOL cap -3104 -1872 R90
WINDOW 0 0 32 VBottom 2
WINDOW 3 32 32 VTop 2
WINDOW 39 54 30 VTop 2
SYMATTR InstName C4
SYMATTR Value 2200p
SYMATTR SpiceLine Rser=20K
SYMBOL res -2864 -1968 R90
WINDOW 0 0 56 VBottom 2
WINDOW 3 32 56 VTop 2
SYMATTR InstName R1
SYMATTR Value 158K
SYMBOL voltage -3040 -2720 R0
SYMATTR InstName V1
SYMATTR Value 24
SYMBOL cap -2704 -2848 R90
WINDOW 0 0 32 VBottom 2
WINDOW 3 32 32 VTop 2
SYMATTR InstName C5
SYMATTR Value 1µ
SYMBOL ind -2688 -2816 R270
WINDOW 0 32 56 VTop 2
WINDOW 3 5 56 VBottom 2
SYMATTR InstName L1
SYMATTR Value 33µ
SYMATTR SpiceLine Rser=.1
SYMBOL cap -2480 -2720 R0
WINDOW 0 29 15 Left 2
SYMATTR InstName C6
SYMATTR Value 4.7µ
SYMBOL schottky -2400 -2704 R0
SYMATTR InstName D1
SYMATTR Value BAT46WJ
SYMATTR Description Diode
SYMATTR Type diode
SYMBOL nmos -2304 -2608 R0
SYMATTR InstName M1
SYMATTR Value BSC265N10LSF
SYMBOL cap -2400 -2608 R0
SYMATTR InstName C7
SYMATTR Value 1µ
SYMBOL nmos -2304 -2416 R0
SYMATTR InstName M2
SYMATTR Value BSC252N10NSF
SYMBOL ind -1744 -2416 R270
WINDOW 0 32 56 VTop 2
WINDOW 3 5 56 VBottom 2
SYMATTR InstName L2
SYMATTR Value {POW_IND}
SYMATTR SpiceLine Rser=10m
SYMBOL res -1600 -2416 R270
WINDOW 0 32 56 VTop 2
WINDOW 3 0 56 VBottom 2
SYMATTR InstName R2
SYMATTR Value 2m
SYMBOL res -1456 -2112 R0
SYMATTR InstName R3
SYMATTR Value 30K
SYMBOL res -1456 -1952 R0
SYMATTR InstName R4
SYMATTR Value 10K
SYMBOL cap -1408 -2416 R0
WINDOW 123 28 59 Left 2
WINDOW 3 39 35 Left 2
SYMATTR Value2 x4
SYMATTR Value 22µ
SYMATTR InstName C8
SYMATTR SpiceLine Rser=20m
SYMBOL res -1152 -2432 R0
SYMATTR InstName Rload
SYMATTR Value 0.25
SYMBOL cap -3056 -1840 R0
SYMATTR InstName C9
SYMATTR Value 0.1n
SYMBOL cap -2592 -1680 R0
SYMATTR InstName C10
SYMATTR Value 0.1n
SYMBOL cap -1296 -2416 R0
SYMATTR InstName C11
SYMATTR Value 560µ
SYMBOL nmos -1824 -2608 M0
SYMATTR InstName M3
SYMATTR Value BSC265N10LSF
SYMBOL nmos -1824 -2416 M0
SYMATTR InstName M4
SYMATTR Value BSC252N10NSF
SYMBOL ind -1744 -2512 R270
WINDOW 0 32 56 VTop 2
WINDOW 3 5 56 VBottom 2
SYMATTR InstName L3
SYMATTR Value {POW_IND}
SYMATTR SpiceLine Rser=10m
SYMBOL ind -1744 -2608 R270
WINDOW 0 32 56 VTop 2
WINDOW 3 5 56 VBottom 2
SYMATTR InstName L4
SYMATTR Value {POW_IND}
SYMATTR SpiceLine Rser=10m
SYMBOL nmos -2000 -2608 M0
SYMATTR InstName M5
SYMATTR Value BSC265N10LSF
SYMBOL nmos -2000 -2416 M0
SYMATTR InstName M6
SYMATTR Value BSC252N10NSF
TEXT -2272 -1736 Left 2 !.tran 1m steady startup nodiscard
TEXT -1736 -2728 Left 2 !.param POW_IND 6.59u
